sol/case3120sp.m
function mpc = case3120sp
%CASE3120SP

%% MATPOWER Case Format : Version 2
mpc.version = '2';

%%-----  Power Flow Data  -----%%
%% system MVA base
mpc.baseMVA = 100;

%% bus data
%	bus_i	type	Pd	Qd	Gs	Bs	area	Vm	Va	baseKV	zone	Vmax	Vmin	lam_P	lam_Q	mu_Vmax	mu_Vmin
mpc.bus = [
	1	1	0	0	0	0	1	1.10632622	-1.41783468	220	1	1.11	0.95	138.2126	0.1314	0.0000	0.0000;
	2	1	0	0	0	0	1	1.10692935	0.256715415	220	1	1.11	0.95	137.7180	0.1075	0.0000	0.0000;
	3	1	0	0	0	0	1	1.0783177	-23.8877308	220	1	1.11	0.95	155.4304	-1.8086	0.0000	0.0000;
	4	1	0	0	0	0	1	1.07828547	-23.8951851	220	1	1.11	0.95	155.4372	-1.8075	0.0000	0.0000;
	5	1	0	0	0	0	1	1.11	-25.9019291	220	1	1.11	0.95	155.3798	-3.0937	4263.6838	0.0000;
	6	1	0	0	0	0	1	1.08288805	-5.43240248	220	1	1.11	0.95	141.3396	0.7258	0.0000	0.0000;
	7	1	0	0	0	0	1	1.08289215	-5.43145668	220	1	1.11	0.95	141.3387	0.7251	0.0000	0.0000;
	8	1	0	0	0	0	1	1.09270608	-14.5733979	220	1	1.11	0.95	146.7240	-0.4683	0.0000	0.0000;
	9	1	0	0	0	0	1	1.09290248	-14.5618454	220	1	1.11	0.95	146.7159	-0.4661	0.0000	0.0000;
	10	1	0	0	0	0	1	1.11	-17.9202744	220	1	1.11	0.95	146.3694	-2.0084	9009.6719	0.0000;
	11	1	0	0	0	0	1	1.03365941	-11.1540175	400	1	1.05	0.95	145.5678	0.3142	0.0000	0.0000;
	12	1	0	0	0	0	1	1.03371664	-11.1472162	400	1	1.05	0.95	145.5607	0.3135	0.0000	0.0000;
	13	1	0	0	0	0	1	1.01198276	-14.8649619	400	1	1.05	0.95	146.3261	0.8059	0.0000	0.0000;
	14	1	0	0	0	0	1	1.04654491	-14.8551826	220	1	1.11	0.95	147.8767	0.6705	0.0000	0.0000;
	15	1	0	0	0	0	1	1.04638672	-14.8552142	220	1	1.11	0.95	147.8791	0.6737	0.0000	0.0000;
	16	1	0	0	0	0	1	1.01752235	-18.6939685	220	1	1.11	0.95	147.7810	-0.1449	0.0000	0.0000;
	17	1	0	0	0	0	1	1.0232557	-18.7784301	220	1	1.11	0.95	148.2204	0.2995	0.0000	0.0000;
	18	1	0	0	0	0	1	1.03555128	-9.76222775	400	1	1.05	0.95	144.6165	0.4771	0.0000	0.0000;
	19	1	0	0	0	0	1	1.03559597	-9.75408824	400	1	1.05	0.95	144.6080	0.4760	0.0000	0.0000;
	20	1	0	0	0	0	1	1.02457985	-17.7733785	400	1	1.05	0.95	146.6254	0.7015	0.0000	0.0000;
	21	1	0	0	0	0	1	1.02714616	-15.1834458	400	1	1.05	0.95	148.0572	0.2750	0.0000	0.0000;
	22	2	10	20	0	0	1	1.06595283	-18.738788	220	1	1.11	0.95	150.7766	-0.0000	0.0000	0.0000;
	23	2	10	20	0	0	1	1.06599322	-18.7363291	220	1	1.11	0.95	150.7738	-0.0000	0.0000	0.0000;
	24	1	0	0	0	0	1	1.08865552	-4.54642973	220	1	1.11	0.95	140.4148	0.5741	0.0000	0.0000;
	25	1	0	0	0	0	1	1.08874221	-4.55213901	220	1	1.11	0.95	140.4112	0.5721	0.0000	0.0000;
	26	1	0	0	0	0	1	1.05362605	-15.1073888	220	1	1.11	0.95	147.1010	0.2247	0.0000	0.0000;
	27	1	0	0	0	0	1	1.05360921	-15.1069824	220	1	1.11	0.95	147.1009	0.2251	0.0000	0.0000;
	28	1	0	0	0	0	1	1.04731375	-14.6781968	220	1	1.11	0.95	147.7413	0.6535	0.0000	0.0000;
	29	1	0	0	0	0	1	1.04726471	-14.6871777	220	1	1.11	0.95	147.7452	0.6534	0.0000	0.0000;
	30	1	0	0	0	0	1	1.09114414	-2.8248187	220	1	1.11	0.95	139.7591	0.4993	0.0000	0.0000;
	31	1	0	0	0	0	1	1.09105985	-2.8438777	220	1	1.11	0.95	139.7686	0.5010	0.0000	0.0000;
	32	1	0	0	0	0	1	1.03942725	-11.7631211	400	1	1.05	0.95	145.5605	0.5165	0.0000	0.0000;
	33	1	0	0	0	0	1	1.03940784	-11.766969	400	1	1.05	0.95	145.5627	0.5166	0.0000	0.0000;
	34	1	0	0	0	0	1	1.03477007	-14.1576617	400	1	1.05	0.95	145.1405	0.3273	0.0000	0.0000;
	35	2	32.16	52.07	0	0	1	1.11	-1.26888889	220	1	1.11	0.95	138.1322	0.0000	882.1802	0.0000;
	36	2	46.36	92.07	0	0	1	1.11	0.439119893	220	1	1.11	0.95	137.5986	-0.0000	1852.5115	0.0000;
	37	3	60	120	0	0	1	1.04996152	0	400	1	1.05	0.95	138.3782	-0.0000	0.0000	0.0000;
	38	2	60	120	0	0	1	1.05	0.00151176909	400	1	1.05	0.95	138.3761	-0.0000	5637.6572	0.0000;
	39	1	0	0	0	0	1	1.04374495	-15.3365095	220	1	1.11	0.95	148.2510	0.7775	0.0000	0.0000;
	40	1	0	0	0	0	1	1.04366582	-15.3442482	220	1	1.11	0.95	148.2572	0.7783	0.0000	0.0000;
	41	1	0	0	0	0	1	1.04779533	-1.73962614	400	1	1.05	0.95	139.0648	0.1923	0.0000	0.0000;
	42	1	0	0	0	0	1	1.0477791	-1.74202348	400	1	1.05	0.95	139.0698	0.1929	0.0000	0.0000;
	43	1	0	0	0	0	1	1.04219267	-15.1520097	220	1	1.11	0.95	148.1488	0.7300	0.0000	0.0000;
	44	1	0	0	0	0	1	1.02724509	-15.1839266	400	1	1.05	0.95	148.0572	0.2726	0.0000	0.0000;
	45	1	0	0	0	0	1	1.07465865	-6.64944104	220	1	1.11	0.95	142.1999	0.8790	0.0000	0.0000;
	46	1	0	0	0	0	1	1.07473022	-6.65314987	220	1	1.11	0.95	142.1982	0.8773	0.0000	0.0000;
	47	1	0	0	0	0	1	1.08007282	-9.15513765	220	2	1.11	0.95	144.0218	0.3155	0.0000	0.0000;
	48	1	0	0	0	0	1	1.08661269	-6.8785284	220	2	1.11	0.95	142.6245	0.1736	0.0000	0.0000;
	49	1	0	0	0	0	1	1.09723143	-5.66063454	220	2	1.11	0.95	141.4773	0.0478	0.0000	0.0000;
	50	1	0	0	0	0	1	1.09721534	-5.66294932	220	2	1.11	0.95	141.4800	0.0481	0.0000	0.0000;
	51	1	0	0	0	0	1	1.05847506	-9.53112213	220	2	1.11	0.95	144.0831	0.6417	0.0000	0.0000;
	52	1	3.97	1	0	0	1	1.09251103	-6.23781789	220	2	1.11	0.95	142.3951	0.0977	0.0000	0.0000;
	53	1	0	0	0	0	1	1.09258014	-6.2304004	220	2	1.11	0.95	142.3924	0.0956	0.0000	0.0000;
	54	1	0	0	0	0	1	1.02933188	-5.64770559	400	2	1.05	0.95	142.0537	-0.0313	0.0000	0.0000;
	55	2	13	30	0	0	1	1.09044111	-9.05848284	220	2	1.11	0.95	143.5137	-0.0000	0.0000	0.0000;
	56	2	39.35	90.07	0	0	1	1.09039721	-9.07259296	220	2	1.11	0.95	143.5200	0.0000	0.0000	0.0000;
	57	2	26	60	0	0	1	1.09045445	-9.04510251	220	2	1.11	0.95	143.5049	-0.0000	0.0000	0.0000;
	58	2	26	50	0	0	1	1.04599343	-7.76539929	400	2	1.05	0.95	143.5200	-0.0000	0.0000	0.0000;
	59	2	26	50	0	0	1	1.04598895	-7.76534392	400	2	1.05	0.95	143.5199	0.0000	0.0000	0.0000;
	60	1	0	0	0	0	1	1.08702723	-6.8416502	220	2	1.11	0.95	143.0504	0.2794	0.0000	0.0000;
	61	1	0	0	0	0	1	1.04178029	-4.67471408	400	2	1.05	0.95	141.0204	-0.5029	0.0000	0.0000;
	62	1	0	0	0	0	1	1.04177622	-4.67645338	400	2	1.05	0.95	141.0219	-0.5024	0.0000	0.0000;
	63	1	0	0	0	0	1	1.04225895	-8.88425368	400	2	1.05	0.95	144.0973	0.0874	0.0000	0.0000;
	64	1	0	0	0	0	1	1.06989183	-7.77139033	220	2	1.11	0.95	142.7698	0.6239	0.0000	0.0000;
	65	1	0	0	0	0	1	1.06987596	-7.76271042	220	2	1.11	0.95	142.7664	0.6245	0.0000	0.0000;
	66	1	0	0	0	0	1	1.03950215	-6.78061653	400	2	1.05	0.95	142.7130	-0.0526	0.0000	0.0000;
	67	1	0	0	0	0	1	1.03949449	-6.77552074	400	2	1.05	0.95	142.7077	-0.0522	0.0000	0.0000;
	68	2	13	30	0	0	1	1.10160258	-4.42748428	220	2	1.11	0.95	140.8400	-0.0028	0.0000	0.0000;
	69	2	26	60	0	0	1	1.10152528	-4.42168811	220	2	1.11	0.95	140.8333	-0.0000	0.0000	0.0000;
	70	2	0	2.25	0	0	1	1.03767185	-4.97742965	400	2	1.05	0.95	141.4072	-0.2666	0.0000	0.0000;
	71	2	26	60	0	0	1	1.03770686	-4.97804379	400	2	1.05	0.95	141.4085	-0.2676	0.0000	0.0000;
	72	1	0	0	0	0	1	1.08094614	-9.39707517	220	2	1.11	0.95	144.0086	0.3328	0.0000	0.0000;
	73	1	0	0	0	0	1	1.08095939	-9.39582678	220	2	1.11	0.95	144.0076	0.3322	0.0000	0.0000;
	74	1	0	0	0	0	1	1.08820441	-6.70929277	220	2	1.11	0.95	142.8730	0.3092	0.0000	0.0000;
	75	1	0	0	0	0	1	1.08821598	-6.71018007	220	2	1.11	0.95	142.8733	0.3083	0.0000	0.0000;
	76	1	0	0	0	0	1	1.08624269	-9.26007437	220	2	1.11	0.95	144.2875	0.1831	0.0000	0.0000;
	77	1	0	0	0	0	1	1.08624192	-9.26531326	220	2	1.11	0.95	144.2877	0.1831	0.0000	0.0000;
	78	1	0	0	0	0	1	1.04647432	-4.92481821	400	2	1.05	0.95	141.1002	-0.6478	0.0000	0.0000;
	79	1	0	0	0	0	1	1.04645883	-4.92590926	400	2	1.05	0.95	141.1013	-0.6466	0.0000	0.0000;
	80	1	0	0	0	0	1	1.09273616	-6.99356954	220	2	1.11	0.95	141.7182	0.1014	0.0000	0.0000;
	81	1	0	0	0	0	1	1.09298408	-6.94879272	220	2	1.11	0.95	141.8603	0.0952	0.0000	0.0000;
	82	1	0	0	0	0	1	1.07321977	-6.23592455	220	2	1.11	0.95	141.6626	0.7059	0.0000	0.0000;
	83	1	0	0	0	0	1	1.0879018	-2.78756827	220	3	1.11	0.95	140.3697	0.3616	0.0000	0.0000;
	84	1	6.41	2.01	0	0	1	1.08564146	-5.121846	220	3	1.11	0.95	141.7018	0.1980	0.0000	0.0000;
	85	1	13.89	5.02	0	0	1	1.08544489	-5.13891246	220	3	1.11	0.95	141.7173	0.2029	0.0000	0.0000;
	86	1	0	0	0	0	1	1.08489907	-1.84988237	220	3	1.11	0.95	139.1202	0.1642	0.0000	0.0000;
	87	1	0	0	0	0	1	1.08500139	-1.83992289	220	3	1.11	0.95	139.1107	0.1633	0.0000	0.0000;
	88	1	0	0	0	0	1	1.10502896	0.100970825	220	3	1.11	0.95	135.4344	-0.0620	0.0000	0.0000;
	89	1	0	0	0	0	1	1.10505697	0.0967421103	220	3	1.11	0.95	135.4372	-0.0621	0.0000	0.0000;
	90	1	0	0	0	0	1	1.05864984	-3.71764043	220	3	1.11	0.95	142.5724	0.4158	0.0000	0.0000;
	91	1	0	0	0	0	1	1.05840888	-3.71794892	220	3	1.11	0.95	142.5893	0.4158	0.0000	0.0000;
	92	2	28	70	0	0	1	1.09247254	-0.950523501	220	3	1.11	0.95	138.4421	0.0000	0.0000	0.0000;
	93	2	28	68	0	0	1	1.09234214	-0.954516925	220	3	1.11	0.95	138.6841	0.0000	0.0000	0.0000;
	94	1	2.78	1.91	0	0	1	1.07840699	-1.16975277	220	3	1.11	0.95	138.9644	0.4768	0.0000	0.0000;
	95	1	0	0	0	0	1	1.0784109	-1.17322933	220	3	1.11	0.95	138.9678	0.4761	0.0000	0.0000;
	96	2	32	142	0	0	1	1.05	1.24877553	400	3	1.05	0.95	135.1755	-0.0000	3104.8250	0.0000;
	97	1	0	0	0	0	1	1.04997429	1.22375446	400	3	1.05	0.95	135.2053	-0.0016	0.1458	0.0000;
	98	1	0	0	0	0	1	1.04799479	-2.02751765	220	3	1.11	0.95	136.0006	1.1097	0.0000	0.0000;
	99	1	0	0	0	0	1	1.09920706	-0.295213	220	3	1.11	0.95	136.5602	0.0714	0.0000	0.0000;
	100	1	0	0	0	0	1	1.09916205	-0.301884909	220	3	1.11	0.95	136.5749	0.0715	0.0000	0.0000;
	101	1	38.8	-2.7	0	0	1	1.09137793	-2.58627993	220	3	1.11	0.95	139.7547	0.2339	0.0000	0.0000;
	102	1	0	0	0	0	1	1.09134445	-2.58812588	220	3	1.11	0.95	139.7575	0.2347	0.0000	0.0000;
	103	1	0	0	0	0	1	1.09263575	-1.12591247	220	3	1.11	0.95	137.4349	0.1897	0.0000	0.0000;
	104	1	0	0	0	0	1	1.09252374	-1.13161541	220	3	1.11	0.95	137.4445	0.1899	0.0000	0.0000;
	105	1	0	0	0	0	1	1.0931966	-2.31566466	220	3	1.11	0.95	139.4780	0.1951	0.0000	0.0000;
	106	1	0	0	0	0	1	1.09321755	-2.31831764	220	3	1.11	0.95	139.4808	0.1962	0.0000	0.0000;
	107	1	0	0	0	0	1	1.04985854	-1.20818381	400	3	1.05	0.95	138.7950	0.0253	0.0000	0.0000;
	108	1	0	0	0	0	1	1.04986765	-1.20233448	400	3	1.05	0.95	138.7888	0.0245	0.0000	0.0000;
	109	1	0	0	0	0	1	1.09885806	-0.787987902	220	3	1.11	0.95	136.6556	0.0794	0.0000	0.0000;
	110	1	0	0	0	0	1	1.09887654	-0.782081399	220	3	1.11	0.95	136.6507	0.0795	0.0000	0.0000;
	111	1	0	0	0	0	1	1.07618048	-0.262823965	220	3	1.11	0.95	135.2714	0.4437	0.0000	0.0000;
	112	1	0	0	0	0	1	1.07605099	-0.271783394	220	3	1.11	0.95	135.2730	0.4455	0.0000	0.0000;
	113	2	38.41	12.71	0	0	1	1.08812777	-1.99518154	220	3	1.11	0.95	139.5272	0.1139	0.0000	0.0000;
	114	1	0	0	0	0	1	1.08812389	-2.00252076	220	3	1.11	0.95	139.5317	0.1142	0.0000	0.0000;
	115	1	0	0	0	0	1	1.08575261	-5.10772239	220	3	1.11	0.95	141.6907	0.1941	0.0000	0.0000;
	116	1	0	0	0	0	1	1.08575931	-5.10724921	220	3	1.11	0.95	141.6895	0.1949	0.0000	0.0000;
	117	1	0	0	0	0	1	1.04526888	-3.69905169	220	3	1.11	0.95	143.5009	0.5508	0.0000	0.0000;
	118	1	0	0	0	0	1	1.04518693	-3.69637259	220	3	1.11	0.95	143.5085	0.5498	0.0000	0.0000;
	119	2	10	44	0	0	1	1.10525979	0.212598974	220	3	1.11	0.95	135.6241	0.0000	0.0000	0.0000;
	120	2	10	44	0	0	1	1.10532323	0.193464671	220	3	1.11	0.95	135.6243	0.0012	0.0000	0.0000;
	121	2	7	18	0	0	1	1.10140795	-0.665776073	220	3	1.11	0.95	136.6838	0.0001	0.0000	0.0000;
	122	2	8	21	0	0	1	1.10143898	-0.654111023	220	3	1.11	0.95	136.6734	-0.0000	0.0000	0.0000;
	123	1	0	0	0	0	1	1.08673964	-2.82628312	220	3	1.11	0.95	140.1941	0.1367	0.0000	0.0000;
	124	1	59.4	11.61	0	0	1	1.08675321	-2.83357738	220	3	1.11	0.95	140.1944	0.1375	0.0000	0.0000;
	125	1	0	0	0	0	1	1.04802191	-4.18653579	220	3	1.11	0.95	142.7388	1.0145	0.0000	0.0000;
	126	1	0	0	0	0	1	1.07840787	-0.409315451	220	3	1.11	0.95	137.9399	0.7181	0.0000	0.0000;
	127	1	0	0	0	0	1	1.07842107	-0.41313857	220	3	1.11	0.95	137.9434	0.7172	0.0000	0.0000;
	128	1	0	0	0	0	1	1.07824982	-1.41518673	220	3	1.11	0.95	139.2638	0.4165	0.0000	0.0000;
	129	1	0	0	0	0	1	1.07835574	-1.4113266	220	3	1.11	0.95	139.2589	0.4148	0.0000	0.0000;
	130	1	0	0	0	0	1	1.04050768	-1.04632249	400	3	1.05	0.95	137.7675	-1.1392	0.0000	0.0000;
	131	1	0	0	0	0	1	1.04050768	-1.04632249	400	3	1.05	0.95	137.7675	-1.1392	0.0000	0.0000;
	132	2	0	1.78	0	0	1	1.09102489	-1.61148497	220	3	1.11	0.95	139.0406	0.0245	0.0000	0.0000;
	133	2	9	20	0	0	1	1.09096286	-1.61020265	220	3	1.11	0.95	139.0466	0.0253	0.0000	0.0000;
	134	2	6	15	0	0	1	1.06070007	-3.15580071	220	3	1.11	0.95	141.3787	0.8204	0.0000	0.0000;
	135	1	0	0	0	0	1	1.06078464	-3.15942972	220	3	1.11	0.95	141.3779	0.8202	0.0000	0.0000;
	136	1	0	0	0	0	1	1.04446451	-4.69087682	400	3	1.05	0.95	141.0013	-0.7159	0.0000	0.0000;
	137	1	0	0	0	0	1	1.04451398	-4.68687929	400	3	1.05	0.95	140.9958	-0.7192	0.0000	0.0000;
	138	1	0	0	0	0	1	1.04999055	-2.12187809	400	3	1.05	0.95	138.7968	-2.2620	0.3935	0.0000;
	139	1	0	0	0	0	1	1.05	-2.12325843	400	3	1.05	0.95	138.8009	-2.2714	30085.5056	0.0000;
	140	1	0	0	0	0	1	1.04029709	-4.46746544	220	3	1.11	0.95	143.2351	1.2344	0.0000	0.0000;
	141	1	0	0	0	0	1	1.04032432	-4.46381635	220	3	1.11	0.95	143.2325	1.2348	0.0000	0.0000;
	142	2	18.2	37.21	0	0	1	1.10203816	1.2630037	220	3	1.11	0.95	134.5044	-0.0000	0.0000	0.0000;
	143	2	41.52	73.01	0	0	1	1.10216296	1.27529657	220	3	1.11	0.95	134.5041	0.0000	0.0000	0.0000;
	144	2	28	66	0	0	1	1.03995761	0.662967891	400	3	1.05	0.95	136.5178	-0.3459	0.0000	0.0000;
	145	1	0	0	0	0	1	1.03999694	0.655549896	400	3	1.05	0.95	136.5196	-0.3498	0.0000	0.0000;
	146	1	0	0	0	0	1	1.09063131	-2.62332704	220	3	1.11	0.95	139.8220	0.2562	0.0000	0.0000;
	147	1	0	0	0	0	1	1.09067798	-2.61655309	220	3	1.11	0.95	139.8117	0.2545	0.0000	0.0000;
	148	1	0	0	0	0	1	1.09558965	-0.662384472	220	3	1.11	0.95	137.7362	0.0305	0.0000	0.0000;
	149	1	0	0	0	0	1	1.09253105	-2.36376253	220	3	1.11	0.95	139.4753	0.2169	0.0000	0.0000;
	150	2	0	-0.79	0	0	1	1.05872815	-3.71821042	220	3	1.11	0.95	142.5724	0.4129	0.0000	0.0000;
	151	2	0	-0.79	0	0	1	1.05848579	-3.71852711	220	3	1.11	0.95	142.5893	0.4129	0.0000	0.0000;
	152	2	7.7	20	0	0	1	1.0922894	-7.90835035	220	4	1.11	0.95	142.1352	0.0000	0.0000	0.0000;
	153	2	7.8	20	0	0	1	1.09229013	-7.91344753	220	4	1.11	0.95	142.1384	0.0000	0.0000	0.0000;
	154	1	0	0	0	0	1	1.06336412	-9.62892916	220	4	1.11	0.95	141.4081	1.3738	0.0000	0.0000;
	155	1	0	0	0	0	1	1.06336842	-9.62930048	220	4	1.11	0.95	141.4094	1.3750	0.0000	0.0000;
	156	1	0	0	0	0	1	1.03990068	-10.7082511	220	4	1.11	0.95	142.2965	1.2945	0.0000	0.0000;
	157	1	0	0	0	0	1	1.08141949	-8.4942846	220	4	1.11	0.95	140.4070	0.7977	0.0000	0.0000;
	158	1	0	0	0	0	1	1.0813314	-8.50057962	220	4	1.11	0.95	140.4111	0.7999	0.0000	0.0000;
	159	1	0	0	0	0	1	1.03297281	-5.9504449	400	4	1.05	0.95	140.1698	0.8330	0.0000	0.0000;
	160	1	0	0	0	0	1	1.0329569	-5.95115692	400	4	1.05	0.95	140.1701	0.8334	0.0000	0.0000;
	161	1	0	0	0	0	1	1.04064733	-17.198632	220	4	1.11	0.95	149.1997	2.1097	0.0000	0.0000;
	162	1	0	0	0	0	1	1.08484541	-28.6788368	220	4	1.11	0.95	164.8103	0.8472	0.0000	0.0000;
	163	1	0	0	0	0	1	1.08484541	-28.6788368	220	4	1.11	0.95	164.8103	0.8472	0.0000	0.0000;
	164	1	0	0	0	0	1	1.06404279	-24.6079394	220	4	1.11	0.95	158.8211	2.2448	0.0000	0.0000;
	165	1	0	0	0	0	1	1.06404279	-24.6079394	220	4	1.11	0.95	158.8211	2.2448	0.0000	0.0000;
	166	1	0	0	0	0	1	1.03612474	-10.9068109	220	4	1.11	0.95	142.4373	1.2833	0.0000	0.0000;
	167	2	0	-13.01	0	0	1	1.08479702	-10.9070893	220	4	1.11	0.95	143.7928	0.0672	0.0000	0.0000;
	168	1	0	0	0	0	1	1.0848441	-10.9106165	220	4	1.11	0.95	143.7944	0.0709	0.0000	0.0000;
	169	2	12	30	0	0	1	1.10996163	-27.409451	220	4	1.11	0.95	163.1649	0.1453	0.1361	0.0000;
	170	2	19.91	36.57	0	0	1	1.10999999	-27.3955059	220	4	1.11	0.95	163.1600	0.1449	541.5650	0.0000;
	171	2	12	30	0	0	1	1.03434527	-20.8542707	400	4	1.05	0.95	150.8621	-0.0020	0.0000	0.0000;
	172	2	12	30	0	0	1	1.03436707	-20.8438612	400	4	1.05	0.95	150.8525	0.0000	0.0000	0.0000;
	173	1	0	0	0	0	1	1.00844953	-18.1422687	220	4	1.11	0.95	150.0039	2.8437	0.0000	0.0000;
	174	1	0	0	0	0	1	1.00849424	-18.1465924	220	4	1.11	0.95	150.0064	2.8426	0.0000	0.0000;
	175	1	0	0	0	0	1	1.0375221	-18.6653315	220	4	1.11	0.95	151.3740	3.6182	0.0000	0.0000;
	176	1	0	0	0	0	1	1.03763503	-18.6601698	220	4	1.11	0.95	151.3765	3.6178	0.0000	0.0000;
	177	2	30.5	64.2	0	0	1	1.11	-5.99671564	220	4	1.11	0.95	139.0097	0.0000	2463.8724	0.0000;
	178	2	58.9	96	0	0	1	1.11	-5.99207488	220	4	1.11	0.95	139.0100	0.0000	3479.1011	0.0000;
	179	1	0	0	0	0	1	1.11	-5.99207488	220	4	1.11	0.95	139.0094	-0.0066	3479.1011	0.0000;
	180	2	26.5	64.2	0	0	1	1.04915632	-2.93167299	400	4	1.05	0.95	138.7826	0.0264	0.0000	0.0000;
	181	1	0	0	0	0	1	1.0491178	-2.93148592	400	4	1.05	0.95	138.7828	0.0275	0.0000	0.0000;
	182	1	0	0	0	0	1	1.08938368	-28.6403381	220	4	1.11	0.95	164.7600	0.6749	0.0000	0.0000;
	183	1	0	0	0	0	1	1.08938368	-28.6403381	220	4	1.11	0.95	164.7600	0.6749	0.0000	0.0000;
	184	1	0	0	0	0	1	1.03443963	-4.84008759	400	4	1.05	0.95	140.3594	0.6390	0.0000	0.0000;
	185	1	0	0	0	0	1	1.01820457	-10.5877119	400	4	1.05	0.95	139.7898	-0.4373	0.0000	0.0000;
	186	1	0	0	0	0	1	1.0351023	-4.49035905	400	4	1.05	0.95	139.1285	0.4716	0.0000	0.0000;
	187	1	0	0	0	0	1	1.03513882	-4.48022957	400	4	1.05	0.95	139.1205	0.4718	0.0000	0.0000;
	188	2	12	30	0	0	1	1.08699216	-10.8675107	220	4	1.11	0.95	143.7196	0.0301	0.0000	0.0000;
	189	2	23.8	60	0	0	1	1.08695328	-10.8905238	220	4	1.11	0.95	143.7337	0.0327	0.0000	0.0000;
	190	2	38	64	0	0	1	1.00545998	-4.15320259	400	4	1.05	0.95	143.3446	0.0000	0.0000	0.0000;
	191	1	0	0	0	0	1	1.03787823	-23.2046924	220	4	1.11	0.95	155.3714	1.4983	0.0000	0.0000;
	192	1	0	0	0	0	1	1.03791165	-23.212496	220	4	1.11	0.95	155.3760	1.4958	0.0000	0.0000;
	193	1	0	0	0	0	1	1.08333799	-28.7450467	220	4	1.11	0.95	164.8761	0.9091	0.0000	0.0000;
	194	1	0	0	0	0	1	1.08333364	-28.7458399	220	4	1.11	0.95	164.8766	0.9092	0.0000	0.0000;
	195	1	0	0	0	0	1	1.04414009	-17.4200152	220	4	1.11	0.95	148.8928	2.0471	0.0000	0.0000;
	196	1	0	0	0	0	1	1.04405322	-17.4272023	220	4	1.11	0.95	148.8981	2.0508	0.0000	0.0000;
	197	1	0	0	0	0	1	1.00117917	-14.7507194	400	4	1.05	0.95	147.5193	2.0110	0.0000	0.0000;
	198	1	0	0	0	0	1	1.02645542	-14.701999	220	4	1.11	0.95	146.6708	3.0699	0.0000	0.0000;
	199	1	0	0	0	0	1	1.02646454	-14.6972123	220	4	1.11	0.95	146.6660	3.0671	0.0000	0.0000;
	200	1	0	0	0	0	1	1.03538741	-18.1113747	220	4	1.11	0.95	149.7410	2.3299	0.0000	0.0000;
...
];

%% generator data
%	bus	Pg	Qg	Qmax	Qmin	Vg	mBase	status	Pmax	Pmin	Pc1	Pc2	Qc1min	Qc1max	Qc2min	Qc2max	ramp_agc	ramp_10	ramp_30	ramp_q	apf	mu_Pmax	mu_Pmin	mu_Qmax	mu_Qmin
mpc.gen = [
	22	110	-49.789451	162	-61	1.06595283	235	1	221	110	0	0	0	0	0	0	0	0	0	0	0	0.0000	7.8334	0.0000	0.0000;
	23	140	2.79711999	140	-25	1.06599322	235	1	200	140	0	0	0	0	0	0	0	0	0	0	0	0.0000	7.8362	0.0000	0.0000;
	35	0	0	190	-19	1.09545	426	0	370	240	0	0	0	0	0	0	0	0	0	0	0	0.0000	0.0000	0.0000	0.0000;
	35	0	0	190	-19	1.09545	426	0	370	240	0	0	0	0	0	0	0	0	0	0	0	0.0000	0.0000	0.0000	0.0000;
	35	370	108.497741	190	-19	1.11	426	1	370	240	0	0	0	0	0	0	0	0	0	0	0	31.1022	0.0000	0.0000	0.0000;
	36	370	70.9610314	190	-19	1.11	426	1	370	240	0	0	0	0	0	0	0	0	0	0	0	30.5686	0.0000	0.0000	0.0000;
	36	370	70.9610314	190	-19	1.11	426	1	370	240	0	0	0	0	0	0	0	0	0	0	0	30.5686	0.0000	0.0000	0.0000;
	37	370	9.88796994	190	-19	1.04996152	426	1	370	240	0	0	0	0	0	0	0	0	0	0	0	31.3482	0.0000	0.0000	0.0000;
	37	370	9.88796994	190	-19	1.04996152	426	1	370	240	0	0	0	0	0	0	0	0	0	0	0	31.3482	0.0000	0.0000	0.0000;
	37	370	9.88796994	190	-19	1.04996152	426	1	370	240	0	0	0	0	0	0	0	0	0	0	0	31.3482	0.0000	0.0000	0.0000;
	38	370	36.6856093	190	-19	1.05	426	1	370	240	0	0	0	0	0	0	0	0	0	0	0	31.3461	0.0000	0.0000	0.0000;
	38	370	36.6856093	190	-19	1.05	426	1	370	240	0	0	0	0	0	0	0	0	0	0	0	31.3461	0.0000	0.0000	0.0000;
	38	370	36.6856093	190	-19	1.05	426	1	370	240	0	0	0	0	0	0	0	0	0	0	0	31.3461	0.0000	0.0000	0.0000;
	55	110.0006	56.5005751	152	-33	1.09044111	235	1	215	110	0	0	0	0	0	0	0	0	0	0	0	0.0000	0.0063	0.0000	0.0000;
	55	0	0	152	-33	1.09091	235	0	220	125	0	0	0	0	0	0	0	0	0	0	0	0.0000	0.0000	0.0000	0.0000;
	56	0	0	149	-33	1.09091	235	0	225	125	0	0	0	0	0	0	0	0	0	0	0	0.0000	0.0000	0.0000	0.0000;
	56	131.602195	111.364641	149	-33	1.09039721	235	1	225	110	0	0	0	0	0	0	0	0	0	0	0	0.0000	0.0000	0.0000	0.0000;
	57	110.000252	-17.0755576	149	-33	1.09045445	235	1	225	110	0	0	0	0	0	0	0	0	0	0	0	0.0000	0.0151	0.0000	0.0000;
	57	120.000252	-17.0755576	149	-33	1.09045445	235	1	225	120	0	0	0	0	0	0	0	0	0	0	0	0.0000	0.0151	0.0000	0.0000;
	58	370.611119	98.9783867	363	-47	1.04599343	588	1	535	255	0	0	0	0	0	0	0	0	0	0	0	0.0000	0.0000	0.0000	0.0000;
	59	250.719513	172.613448	348	-100	1.04598895	588	1	560	250	0	0	0	0	0	0	0	0	0	0	0	0.0000	0.0000	0.0000	0.0000;
	68	129.000001	-13.9986231	120	-14	1.10160258	235	1	225	129	0	0	0	0	0	0	0	0	0	0	0	0.0000	7.3200	0.0000	0.0028;
	69	129.000001	10.8726606	120	-14	1.10152528	235	1	225	129	0	0	0	0	0	0	0	0	0	0	0	0.0000	7.3267	0.0000	0.0000;
	69	129.000001	13.3550568	99	-10	1.10152528	235	1	225	129	0	0	0	0	0	0	0	0	0	0	0	0.0000	7.3267	0.0000	0.0000;
	70	0	0	120	-14	1.0325	235	0	225	129	0	0	0	0	0	0	0	0	0	0	0	0.0000	0.0000	0.0000	0.0000;
	70	0	0	120	-14	1.0325	235	0	225	129	0	0	0	0	0	0	0	0	0	0	0	0.0000	0.0000	0.0000	0.0000;
	71	129.000001	-9.99998653	99	-10	1.03770686	235	1	225	129	0	0	0	0	0	0	0	0	0	0	0	0.0000	6.7515	0.0000	0.2676;
	71	129.000001	-13.9999865	120	-14	1.03770686	235	1	225	129	0	0	0	0	0	0	0	0	0	0	0	0.0000	6.7515	0.0000	0.2676;
	92	219.999999	102.388082	134	-7	1.09247254	271	1	220	140	0	0	0	0	0	0	0	0	0	0	0	4.4021	0.0000	0.0000	0.0000;
	92	224.999999	99.7168633	131	-6	1.09247254	271	1	225	140	0	0	0	0	0	0	0	0	0	0	0	4.4021	0.0000	0.0000	0.0000;
	93	0	0	131	-6	1.08182	271	0	225	140	0	0	0	0	0	0	0	0	0	0	0	0.0000	0.0000	0.0000	0.0000;
	93	224.999999	89.6349308	131	-6	1.09234214	271	1	225	140	0	0	0	0	0	0	0	0	0	0	0	4.6441	0.0000	0.0000	0.0000;
	93	224.999999	89.6349308	131	-6	1.09234214	271	1	225	140	0	0	0	0	0	0	0	0	0	0	0	4.6441	0.0000	0.0000	0.0000;
	96	383	37.981873	213	-30	1.05	426	1	383	180	0	0	0	0	0	0	0	0	0	0	0	8.5555	0.0000	0.0000	0.0000;
	96	380	36.981873	212	-31	1.05	435	1	380	180	0	0	0	0	0	0	0	0	0	0	0	8.5555	0.0000	0.0000	0.0000;
	113	0	0	0	0	1.07727	12	0	12	0	0	0	0	0	0	0	0	0	0	0	0	0.0000	0.0000	0.0000	0.0000;
	113	0	0	0	0	1.07727	6	0	6	0	0	0	0	0	0	0	0	0	0	0	0	0.0000	0.0000	0.0000	0.0000;
	113	21	0	0	0	1.08812777	26	1	21	0	0	0	0	0	0	0	0	0	0	0	0	139.5272	0.0000	0.1139	0.0000;
	119	224.999999	87.4663203	120	-10	1.10525979	271	1	225	120	0	0	0	0	0	0	0	0	0	0	0	5.1341	0.0000	0.0000	0.0000;
	120	224.999999	119.996672	120	-10	1.10532323	271	1	225	120	0	0	0	0	0	0	0	0	0	0	0	5.1343	0.0000	0.0012	0.0000;
	121	119.999999	72.1392303	73	-1	1.10140795	150	1	120	70	0	0	0	0	0	0	0	0	0	0	0	4.3538	0.0000	0.0000	0.0000;
	122	119.999999	10.9013582	73	-1	1.10143898	150	1	120	70	0	0	0	0	0	0	0	0	0	0	0	4.3434	0.0000	0.0000	0.0000;
	132	0	0	79	0	1.07727	150	0	120	70	0	0	0	0	0	0	0	0	0	0	0	0.0000	0.0000	0.0000	0.0000;
	133	119.999998	78.9998525	79	0	1.09096286	150	1	120	70	0	0	0	0	0	0	0	0	0	0	0	2.4566	0.0000	0.0253	0.0000;
	134	109.999997	30.9999955	31	0	1.06070007	118	1	110	80	0	0	0	0	0	0	0	0	0	0	0	1.4187	0.0000	0.8204	0.0000;
	142	214.999999	37.646422	135	-35	1.10203816	271	1	215	135	0	0	0	0	0	0	0	0	0	0	0	6.2944	0.0000	0.0000	0.0000;
	143	214.999999	79.6845865	135	-35	1.10216296	271	1	215	135	0	0	0	0	0	0	0	0	0	0	0	6.2941	0.0000	0.0000	0.0000;
	143	224.999999	83.6970289	140	-35	1.10216296	271	1	225	135	0	0	0	0	0	0	0	0	0	0	0	6.2941	0.0000	0.0000	0.0000;
	144	225	-35.9999894	140	-36	1.03995761	271	1	225	135	0	0	0	0	0	0	0	0	0	0	0	8.3078	0.0000	0.0000	0.3459;
	144	220	-35.9999894	137	-36	1.03995761	271	1	220	135	0	0	0	0	0	0	0	0	0	0	0	8.3078	0.0000	0.0000	0.3459;
	150	0	0	72	-29	1.04091	150	0	135	-135	0	0	0	0	0	0	0	0	0	0	0	0.0000	0.0000	0.0000	0.0000;
	150	0	0	72	-29	1.04091	150	0	135	-135	0	0	0	0	0	0	0	0	0	0	0	0.0000	0.0000	0.0000	0.0000;
	151	0	0	72	-29	1.04091	150	0	135	-135	0	0	0	0	0	0	0	0	0	0	0	0.0000	0.0000	0.0000	0.0000;
	151	0	0	72	-29	1.04091	150	0	135	-135	0	0	0	0	0	0	0	0	0	0	0	0.0000	0.0000	0.0000	0.0000;
	152	120	64.4350682	85	-15	1.0922894	150	1	120	100	0	0	0	0	0	0	0	0	0	0	0	12.1452	0.0000	0.0000	0.0000;
	152	0	0	85	-15	1.06818	150	0	120	100	0	0	0	0	0	0	0	0	0	0	0	0.0000	0.0000	0.0000	0.0000;
	153	120	55.2042789	85	-15	1.09229013	150	1	120	100	0	0	0	0	0	0	0	0	0	0	0	12.1484	0.0000	0.0000	0.0000;
	167	0	0	12	0	1.05	51	0	50	40	0	0	0	0	0	0	0	0	0	0	0	0.0000	0.0000	0.0000	0.0000;
	169	204.999326	110.999838	111	-21	1.10996163	238	1	205	135	0	0	0	0	0	0	0	0	0	0	0	0.0049	0.0000	0.1453	0.0000;
	170	0	0	102	-15	1.08182	252	0	222	90	0	0	0	0	0	0	0	0	0	0	0	0.0000	0.0000	0.0000	0.0000;
	170	0	0	111	-21	1.08182	238	0	205	135	0	0	0	0	0	0	0	0	0	0	0	0.0000	0.0000	0.0000	0.0000;
	170	168.412303	118.999831	119	-31	1.10999999	252	1	232	100	0	0	0	0	0	0	0	0	0	0	0	0.0000	0.0000	0.1449	0.0000;
	171	90.0000003	-14.9985513	102	-15	1.03434527	252	1	222	90	0	0	0	0	0	0	0	0	0	0	0	0.0000	12.2979	0.0000	0.0020;
	172	0	0	93	-10	1.0325	252	0	232	100	0	0	0	0	0	0	0	0	0	0	0	0.0000	0.0000	0.0000	0.0000;
	172	90.0000003	64.7461255	102	-15	1.03436707	252	1	222	90	0	0	0	0	0	0	0	0	0	0	0	0.0000	12.3075	0.0000	0.0000;
	177	104.280609	83.7352642	127	-35	1.11	287	1	261	104	0	0	0	0	0	0	0	0	0	0	0	0.0000	0.0000	0.0000	0.0000;
	177	94.2775648	99.4901842	145	-38	1.11	264	1	235	94	0	0	0	0	0	0	0	0	0	0	0	0.0000	0.0000	0.0000	0.0000;
	178	0	0	103	-17	1.09091	238	0	206	120	0	0	0	0	0	0	0	0	0	0	0	0.0000	0.0000	0.0000	0.0000;
	178	151.673837	81.6557758	145	-38	1.11	264	1	235	94	0	0	0	0	0	0	0	0	0	0	0	0.0000	0.0000	0.0000	0.0000;
	178	166.971719	68.6902362	127	-35	1.11	287	1	261	104	0	0	0	0	0	0	0	0	0	0	0	0.0000	0.0000	0.0000	0.0000;
	178	166.971719	68.6902362	127	-35	1.11	287	1	261	104	0	0	0	0	0	0	0	0	0	0	0	0.0000	0.0000	0.0000	0.0000;
	180	120.000017	102.999863	103	-17	1.04915632	238	1	206	120	0	0	0	0	0	0	0	0	0	0	0	0.0000	0.2274	0.0264	0.0000;
	180	120.000017	102.999863	103	-17	1.04915632	238	1	206	120	0	0	0	0	0	0	0	0	0	0	0	0.0000	0.2274	0.0264	0.0000;
	188	225	111.999876	112	-32	1.08699216	233	1	225	150	0	0	0	0	0	0	0	0	0	0	0	18.2396	0.0000	0.0301	0.0000;
	189	200	111.999886	112	-32	1.08695328	233	1	200	150	0	0	0	0	0	0	0	0	0	0	0	18.2537	0.0000	0.0327	0.0000;
	189	0	0	112	-32	1.05455	233	0	200	150	0	0	0	0	0	0	0	0	0	0	0	0.0000	0.0000	0.0000	0.0000;
	189	200	111.999886	112	-32	1.08695328	233	1	200	150	0	0	0	0	0	0	0	0	0	0	0	18.2537	0.0000	0.0327	0.0000;
	190	464	149.094709	294	-259	1.00545998	464	1	464	186	0	0	0	0	0	0	0	0	0	0	0	17.8646	0.0000	0.0000	0.0000;
	204	0	0	100	0	1	218	0	188	76	0	0	0	0	0	0	0	0	0	0	0	0.0000	0.0000	0.0000	0.0000;
	236	179	-39.504338	105	-62	1.037334	209	1	179	-200	0	0	0	0	0	0	0	0	0	0	0	13.0207	0.0000	0.0000	0.0000;
	236	179	-39.504338	105	-62	1.037334	209	1	179	-200	0	0	0	0	0	0	0	0	0	0	0	13.0207	0.0000	0.0000	0.0000;
	236	179	-51.5886934	130	-75	1.037334	209	1	179	-200	0	0	0	0	0	0	0	0	0	0	0	13.0207	0.0000	0.0000	0.0000;
	237	179	-2.98391097	160	-100	1.03734313	209	1	179	-200	0	0	0	0	0	0	0	0	0	0	0	13.0217	0.0000	0.0000	0.0000;
	240	250	38.4318652	150	0	1.11	156	1	250	113	0	0	0	0	0	0	0	0	0	0	0	133.2156	0.0000	0.0000	0.0000;
	250	0	0	20	0	1.08182	79	0	55	23	0	0	0	0	0	0	0	0	0	0	0	0.0000	0.0000	0.0000	0.0000;
	250	0	0	20	0	1.08182	69	0	50	25	0	0	0	0	0	0	0	0	0	0	0	0.0000	0.0000	0.0000	0.0000;
	251	23	3.3314127e-05	20	0	1.10364264	28	1	23	7	0	0	0	0	0	0	0	0	0	0	0	152.0589	0.0000	0.0000	0.0990;
	251	0	0	20	0	1.08182	69	0	50	25	0	0	0	0	0	0	0	0	0	0	0	0.0000	0.0000	0.0000	0.0000;
	267	1.99999997	0.999996949	1	0	1.10022651	1	1	2	0	0	0	0	0	0	0	0	0	0	0	0	143.3591	0.0000	0.4807	0.0000;
	268	1.99999998	0.99999627	1	0	1.08119737	1	1	2	0	0	0	0	0	0	0	0	0	0	0	0	148.0364	0.0000	0.9784	0.0000;
	282	0	0	5	0	1.07273	10	0	7	6	0	0	0	0	0	0	0	0	0	0	0	0.0000	0.0000	0.0000	0.0000;
	283	0	0	5	0	1.07273	10	0	7	6	0	0	0	0	0	0	0	0	0	0	0	0.0000	0.0000	0.0000	0.0000;
	301	4.99999998	3.7499958	3.75	0	1.0851234	5	1	5	1	0	0	0	0	0	0	0	0	0	0	0	152.3074	0.0000	0.8745	0.0000;
	301	4.99999998	3.7499958	3.75	0	1.0851234	5	1	5	1	0	0	0	0	0	0	0	0	0	0	0	152.3074	0.0000	0.8745	0.0000;
	301	4.99999998	3.7499958	3.75	0	1.0851234	5	1	5	1	0	0	0	0	0	0	0	0	0	0	0	152.3074	0.0000	0.8745	0.0000;
	302	4.99999998	3.74999581	3.75	0	1.08520094	5	1	5	1	0	0	0	0	0	0	0	0	0	0	0	152.3074	0.0000	0.8764	0.0000;
	316	370	189.999214	190	-19	1.00654819	426	1	370	240	0	0	0	0	0	0	0	0	0	0	0	30.5844	0.0000	0.0074	0.0000;
	322	0	0	2	0	1.03636	4	0	6	1	0	0	0	0	0	0	0	0	0	0	0	0.0000	0.0000	0.0000	0.0000;
	322	0	0	2	0	1.03636	4	0	6	1	0	0	0	0	0	0	0	0	0	0	0	0.0000	0.0000	0.0000	0.0000;
	369	30	3.99998707	4	0	1.10100592	30	1	30	0	0	0	0	0	0	0	0	0	0	0	0	138.1133	0.0000	0.2860	0.0000;
	398	0	0	5	0	1.08182	8	0	7	5	0	0	0	0	0	0	0	0	0	0	0	0.0000	0.0000	0.0000	0.0000;
	402	0.999999974	0.999995249	1	0	1.11026438	1	1	1	0	0	0	0	0	0	0	0	0	0	0	0	141.0880	0.0000	0.7726	0.0000;
	402	0.999999974	0.999995249	1	0	1.11026438	1	1	1	0	0	0	0	0	0	0	0	0	0	0	0	141.0880	0.0000	0.7726	0.0000;
	402	0.999999974	0.999995249	1	0	1.11026438	1	1	1	0	0	0	0	0	0	0	0	0	0	0	0	141.0880	0.0000	0.7726	0.0000;
	409	0	0	7	0	1.07545	31	0	27	11	0	0	0	0	0	0	0	0	0	0	0	0.0000	0.0000	0.0000	0.0000;
	409	30	6.99999604	7	0	1.10697442	39	1	30	11	0	0	0	0	0	0	0	0	0	0	0	142.2511	0.0000	0.9163	0.0000;
	409	0	0	6	0	1.07545	41	0	30	9	0	0	0	0	0	0	0	0	0	0	0	0.0000	0.0000	0.0000	0.0000;
	411	0	0	15	0	1.07273	69	0	55	20	0	0	0	0	0	0	0	0	0	0	0	0.0000	0.0000	0.0000	0.0000;
	411	55	14.999996	15	0	1.10527287	69	1	55	20	0	0	0	0	0	0	0	0	0	0	0	142.6997	0.0000	0.9088	0.0000;
	412	0	0	15	0	1.07273	49	0	40	10	0	0	0	0	0	0	0	0	0	0	0	0.0000	0.0000	0.0000	0.0000;
	412	0	0	15	0	1.07273	69	0	55	20	0	0	0	0	0	0	0	0	0	0	0	0.0000	0.0000	0.0000	0.0000;
	414	0	0	20	0	1.07273	69	0	50	25	0	0	0	0	0	0	0	0	0	0	0	0.0000	0.0000	0.0000	0.0000;
	414	0	0	20	0	1.07273	147	0	100	55	0	0	0	0	0	0	0	0	0	0	0	0.0000	0.0000	0.0000	0.0000;
	415	60	39.9999923	40	0	1.11628708	69	1	60	25	0	0	0	0	0	0	0	0	0	0	0	141.2012	0.0000	0.4703	0.0000;
	428	2.99999997	2.99999724	3	0	1.09880014	4	1	3	2	0	0	0	0	0	0	0	0	0	0	0	142.2948	0.0000	1.3247	0.0000;
	466	0	0	1	0	1.06364	2	0	2	1	0	0	0	0	0	0	0	0	0	0	0	0.0000	0.0000	0.0000	0.0000;
	492	52	24.2357107	57	-22	1.11899381	69	1	52	15	0	0	0	0	0	0	0	0	0	0	0	145.9855	0.0000	0.0000	0.0000;
	493	55	18.7440093	57	-22	1.11759803	69	1	55	15	0	0	0	0	0	0	0	0	0	0	0	147.8492	0.0000	0.0000	0.0000;
	494	55	8.04710137	57	-22	1.12	69	1	55	15	0	0	0	0	0	0	0	0	0	0	0	143.7754	0.0000	0.0000	0.0000;
	494	55	8.04710137	57	-22	1.12	69	1	55	15	0	0	0	0	0	0	0	0	0	0	0	143.7754	0.0000	0.0000	0.0000;
	495	55	14.2979871	57	-22	1.11999999	69	1	55	15	0	0	0	0	0	0	0	0	0	0	0	145.2386	0.0000	0.0000	0.0000;
	495	77	16.4766023	71	-28	1.11999999	88	1	77	3	0	0	0	0	0	0	0	0	0	0	0	145.2386	0.0000	0.0000	0.0000;
	517	120	53.9936911	162	-61	1.10413347	235	1	226	120	0	0	0	0	0	0	0	0	0	0	0	0.0000	8.3629	0.0000	0.0000;
	517	0	0	12	0	1.09091	49	0	25	12	0	0	0	0	0	0	0	0	0	0	0	0.0000	0.0000	0.0000	0.0000;
	518	10.0000005	9.54809173	12	0	1.1029599	49	1	17	10	0	0	0	0	0	0	0	0	0	0	0	0.0000	7.5197	0.0000	0.0000;
	522	0	0	2	0	1.06364	6	0	4	4	0	0	0	0	0	0	0	0	0	0	0	0.0000	0.0000	0.0000	0.0000;
	542	0	0.199993027	0.2	0	1.0987898	0	1	0	0	0	0	0	0	0	0	0	0	0	0	0	139.6542	0.0000	0.5366	0.0000;
	571	0	0	4	0	1.04545	8	0	7	3	0	0	0	0	0	0	0	0	0	0	0	0.0000	0.0000	0.0000	0.0000;
	580	0	0	3	0	1.08182	5	0	3	3	0	0	0	0	0	0	0	0	0	0	0	0.0000	0.0000	0.0000	0.0000;
	587	6.99999998	4.69998998	4.7	3.8	1.1052232	7	1	7	1	0	0	0	0	0	0	0	0	0	0	0	149.6389	0.0000	0.3350	0.0000;
	587	6.99999998	4.69998998	4.7	3.8	1.1052232	7	1	7	1	0	0	0	0	0	0	0	0	0	0	0	149.6389	0.0000	0.3350	0.0000;
	587	0	0	4.7	3.8	1.06364	7	0	7	1	0	0	0	0	0	0	0	0	0	0	0	0.0000	0.0000	0.0000	0.0000;
	599	2.99999997	1.99999834	2	0	1.05659694	4	1	3	2	0	0	0	0	0	0	0	0	0	0	0	143.1868	0.0000	2.2407	0.0000;
	633	0	0	2	0	1.02727	5	0	4	3	0	0	0	0	0	0	0	0	0	0	0	0.0000	0.0000	0.0000	0.0000;
	663	1.99999997	0.699996149	0.7	0	1.07717292	2	1	2	1	0	0	0	0	0	0	0	0	0	0	0	143.7905	0.0000	0.9615	0.0000;
	663	0	0	0.7	0	1.05455	2	0	2	1	0	0	0	0	0	0	0	0	0	0	0	0.0000	0.0000	0.0000	0.0000;
	669	0	0	3	0	1.06364	6	0	4	3	0	0	0	0	0	0	0	0	0	0	0	0.0000	0.0000	0.0000	0.0000;
	740	52	5.57567472	35	2	1.0900016	63	1	52	37	0	0	0	0	0	0	0	0	0	0	0	147.0440	0.0000	0.0000	0.0000;
	740	0	0	23	2	1.05455	38	0	30	10	0	0	0	0	0	0	0	0	0	0	0	0.0000	0.0000	0.0000	0.0000;
	740	0	0	85	6	1.05455	150	0	105	50	0	0	0	0	0	0	0	0	0	0	0	0.0000	0.0000	0.0000	0.0000;
	740	105	10.1713508	85	6	1.0900016	150	1	105	50	0	0	0	0	0	0	0	0	0	0	0	147.0440	0.0000	0.0000	0.0000;
	741	0	0	23	2	1.05455	38	0	30	10	0	0	0	0	0	0	0	0	0	0	0	0.0000	0.0000	0.0000	0.0000;
	741	0	0	23	2	1.05455	38	0	30	10	0	0	0	0	0	0	0	0	0	0	0	0.0000	0.0000	0.0000	0.0000;
	741	30	18.8604531	25	2	1.11061232	38	1	30	10	0	0	0	0	0	0	0	0	0	0	0	148.2740	0.0000	0.0000	0.0000;
	741	125	76.7141763	85	6	1.11061232	150	1	125	68	0	0	0	0	0	0	0	0	0	0	0	148.2740	0.0000	0.0000	0.0000;
	741	0	0	85	6	1.05455	150	0	105	50	0	0	0	0	0	0	0	0	0	0	0	0.0000	0.0000	0.0000	0.0000;
	762	1.99999998	5.50779131e-06	0.7	0	1.08410804	2	1	2	1	0	0	0	0	0	0	0	0	0	0	0	149.4024	0.0000	0.0000	0.6688;
	764	0.999999976	0.999996697	1	0	1.07715307	4	1	1	0	0	0	0	0	0	0	0	0	0	0	0	154.7613	0.0000	1.1249	0.0000;
	772	0	0	18	2	1.05455	38	0	35	9	0	0	0	0	0	0	0	0	0	0	0	0.0000	0.0000	0.0000	0.0000;
	772	20	17.7400918	30	2	1.09458394	38	1	20	9	0	0	0	0	0	0	0	0	0	0	0	149.4043	0.0000	0.0000	0.0000;
	773	0	0	18	2	1.05455	38	0	35	9	0	0	0	0	0	0	0	0	0	0	0	0.0000	0.0000	0.0000	0.0000;
	773	0	0	18	2	1.05455	38	0	35	9	0	0	0	0	0	0	0	0	0	0	0	0.0000	0.0000	0.0000	0.0000;
	773	0	0	18	2	1.05455	38	0	35	9	0	0	0	0	0	0	0	0	0	0	0	0.0000	0.0000	0.0000	0.0000;
	773	97	64.9999948	65	6	1.09817962	121	1	97	30	0	0	0	0	0	0	0	0	0	0	0	149.3127	0.0000	0.7113	0.0000;
	774	0	0	18	2	1.05455	38	0	35	9	0	0	0	0	0	0	0	0	0	0	0	0.0000	0.0000	0.0000	0.0000;
	774	0	0	18	2	1.05455	38	0	30	9	0	0	0	0	0	0	0	0	0	0	0	0.0000	0.0000	0.0000	0.0000;
	774	0	0	14	2	1.05455	32	0	28	9	0	0	0	0	0	0	0	0	0	0	0	0.0000	0.0000	0.0000	0.0000;
	809	7.99999997	3.99999475	4	0	1.09571483	5	1	8	1	0	0	0	0	0	0	0	0	0	0	0	144.7564	0.0000	0.6835	0.0000;
	809	0	0	2	0	1.07273	2	0	2	1	0	0	0	0	0	0	0	0	0	0	0	0.0000	0.0000	0.0000	0.0000;
	829	0	0	4.5	0.2	1.04545	6	0	4	4	0	0	0	0	0	0	0	0	0	0	0	0.0000	0.0000	0.0000	0.0000;
	844	2.99999997	0	0	0	1.09643808	6	1	3	0	0	0	0	0	0	0	0	0	0	0	0	143.6243	0.0000	0.5395	0.0000;
	853	0	0	0	0	1.06364	4	0	5	0	0	0	0	0	0	0	0	0	0	0	0	0.0000	0.0000	0.0000	0.0000;
	876	93	14.9958361	30	0	1.11387196	65	1	93	0	0	0	0	0	0	0	0	0	0	0	0	139.3056	0.0000	0.0000	0.0000;
	876	36	14.9958361	30	0	1.11387196	65	1	36	0	0	0	0	0	0	0	0	0	0	0	0	139.3056	0.0000	0.0000	0.0000;
	879	0	0	0	0	1.06364	12	0	3	0	0	0	0	0	0	0	0	0	0	0	0	0.0000	0.0000	0.0000	0.0000;
	886	0	0	0	0	1.08182	5	0	6	0	0	0	0	0	0	0	0	0	0	0	0	0.0000	0.0000	0.0000	0.0000;
	887	0	0	0	0	1.08182	6	0	6	0	0	0	0	0	0	0	0	0	0	0	0	0.0000	0.0000	0.0000	0.0000;
	922	135.000019	115.783879	149	-33	1.11178892	235	1	225	135	0	0	0	0	0	0	0	0	0	0	0	0.0000	0.1890	0.0000	0.0000;
	923	0	0	149	-33	1.09091	235	0	225	110	0	0	0	0	0	0	0	0	0	0	0	0.0000	0.0000	0.0000	0.0000;
	931	0	0	0	0	1.07273	3	0	3	0	0	0	0	0	0	0	0	0	0	0	0	0.0000	0.0000	0.0000	0.0000;
	937	0	0	0	0	1.07273	12	0	12	0	0	0	0	0	0	0	0	0	0	0	0	0.0000	0.0000	0.0000	0.0000;
	947	0	0	30	0	1.07273	168	0	170	66	0	0	0	0	0	0	0	0	0	0	0	0.0000	0.0000	0.0000	0.0000;
	947	0	0	30	0	1.07273	72	0	61	34	0	0	0	0	0	0	0	0	0	0	0	0.0000	0.0000	0.0000	0.0000;
	953	0	0	0	0	1.07273	8	0	21	0	0	0	0	0	0	0	0	0	0	0	0	0.0000	0.0000	0.0000	0.0000;
	967	0	0	0	0	1.07273	6	0	7	0	0	0	0	0	0	0	0	0	0	0	0	0.0000	0.0000	0.0000	0.0000;
	970	0	0	0	0	1.08182	3	0	10	0	0	0	0	0	0	0	0	0	0	0	0	0.0000	0.0000	0.0000	0.0000;
	985	30	0	0	0	1.10120654	3	1	30	0	0	0	0	0	0	0	0	0	0	0	0	140.6633	0.0000	0.5277	0.0000;
	990	1.99999997	0	0	0	1.07213379	1	1	2	0	0	0	0	0	0	0	0	0	0	0	0	146.2560	0.0000	1.1752	0.0000;
	995	0	0	0	0	1.06364	1	0	2	0	0	0	0	0	0	0	0	0	0	0	0	0.0000	0.0000	0.0000	0.0000;
	1006	0	0	0	0	1.06364	2	0	2	1	0	0	0	0	0	0	0	0	0	0	0	0.0000	0.0000	0.0000	0.0000;
	1011	129	43.2662055	120	-14	1.11253429	235	1	225	129	0	0	0	0	0	0	0	0	0	0	0	0.0000	8.7068	0.0000	0.0000;
	1013	0	0	30	0	1.06364	37	0	36	0	0	0	0	0	0	0	0	0	0	0	0	0.0000	0.0000	0.0000	0.0000;
	1016	0	0	0	0	1.07273	3	0	3	2	0	0	0	0	0	0	0	0	0	0	0	0.0000	0.0000	0.0000	0.0000;
	1036	0	0	30	0	1.08182	101	0	101	49	0	0	0	0	0	0	0	0	0	0	0	0.0000	0.0000	0.0000	0.0000;
	1042	0	0	0	0	1.06364	2	0	12	0	0	0	0	0	0	0	0	0	0	0	0	0.0000	0.0000	0.0000	0.0000;
	1057	12	17.9579273	30	0	1.09256372	10	1	12	0	0	0	0	0	0	0	0	0	0	0	0	143.2627	0.0000	0.0000	0.0000;
	1060	0	0	0	0	1.08182	2	0	2	1	0	0	0	0	0	0	0	0	0	0	0	0.0000	0.0000	0.0000	0.0000;
	1062	0	0	0	0	1.07273	6	0	6	1	0	0	0	0	0	0	0	0	0	0	0	0.0000	0.0000	0.0000	0.0000;
	1067	7.99999997	0	0	0	1.09463709	11	1	8	0	0	0	0	0	0	0	0	0	0	0	0	141.6531	0.0000	0.1836	0.0000;
	1071	0	0	23	0	1.09091	52	0	68	5	0	0	0	0	0	0	0	0	0	0	0	0.0000	0.0000	0.0000	0.0000;
	1071	68	9.04447847	23	0	1.10390105	52	1	68	5	0	0	0	0	0	0	0	0	0	0	0	140.2310	0.0000	0.0000	0.0000;
	1071	0	0	11	0	1.09091	25	0	31	-32	0	0	0	0	0	0	0	0	0	0	0	0.0000	0.0000	0.0000	0.0000;
	1071	0	0	10	0	1.09091	25	0	31	-32	0	0	0	0	0	0	0	0	0	0	0	0.0000	0.0000	0.0000	0.0000;
	1086	0	0	24	-1	1.08182	69	0	50	8	0	0	0	0	0	0	0	0	0	0	0	0.0000	0.0000	0.0000	0.0000;
	1086	92.0000002	39.3844149	74	-15	1.10905214	58	1	125	92	0	0	0	0	0	0	0	0	0	0	0	0.0000	16.4014	0.0000	0.0000;
	1087	85.0000003	48.6804471	74	-15	1.09911624	58	1	125	85	0	0	0	0	0	0	0	0	0	0	0	0.0000	14.2027	0.0000	0.0000;
	1087	0	0	28	-2	1.08182	40	0	41	12	0	0	0	0	0	0	0	0	0	0	0	0.0000	0.0000	0.0000	0.0000;
	1099	0	0	0	0	1.08182	3	0	3	0	0	0	0	0	0	0	0	0	0	0	0	0.0000	0.0000	0.0000	0.0000;
	1126	0	0	0	0	1.06364	4	0	3	2	0	0	0	0	0	0	0	0	0	0	0	0.0000	0.0000	0.0000	0.0000;
	1132	31	0	0	0	1.09160553	31	1	31	0	0	0	0	0	0	0	0	0	0	0	0	141.8376	0.0000	0.8764	0.0000;
...
];

%% branch data
%	fbus	tbus	r	x	b	rateA	rateB	rateC	ratio	angle	status	angmin	angmax	Pf	Qf	Pt	Qt	mu_Sf	mu_St	mu_angmin	mu_angmax
mpc.branch = [
	9	11	0.00064	0.0305	0	400	400	400	1.09271	0	1	-360	360	-203.5784	-99.5349	203.9069	115.1915	0.0000	0.0000	0.0000	0.0000;
	13	12	0.00069	0.03946	0	250	250	250	0.9999	0	1	-360	360	-172.7346	-46.8843	172.9504	59.2254	0.0000	0.0000	0.0000	0.0000;
	20	18	0.00088	0.05709	0	330	330	330	0.9999	0	1	-360	360	-258.9938	2.6228	259.5560	33.8530	0.0000	0.0000	0.0000	0.0000;
	34	33	0.0007	0.03652	0	250	250	250	0.9999	0	1	-360	360	-123.0140	-7.9274	123.1133	13.1090	0.0000	0.0000	0.0000	0.0000;
	35	37	0.00036	0.02519	0	500	500	500	1.07313	0	1	-360	360	-96.3541	-61.6396	96.3981	64.7200	0.0000	0.0000	0.0000	0.0000;
	36	38	0.00036	0.02519	0	500	500	500	1.07313	0	1	-360	360	32.0072	-64.5635	-31.9897	65.7861	0.0000	0.0000	0.0000	0.0000;
	53	54	0.00034	0.02097	0	500	500	500	1.0755	0	1	-360	360	-51.7507	-64.0646	51.7731	65.4428	0.0000	0.0000	0.0000	0.0000;
	57	59	0.00034	0.02097	0	500	500	500	1.07313	0	1	-360	360	-115.4957	-141.4836	115.6056	148.2580	0.0000	0.0000	0.0000	0.0000;
	68	70	0.00081	0.03	0	400	400	400	1.10102	0	1	-360	360	29.8548	-124.5212	-29.7221	129.4351	0.0000	0.0000	0.0000	0.0000;
	105	107	0.00075	0.02445	-0.00832	330	330	330	1.039	0	1	-360	360	-86.9097	13.8841	86.9621	-11.2571	0.0000	0.0000	0.0000	0.0000;
	106	108	0.0004	0.0253	0	500	500	500	1.0457	0	1	-360	360	-84.7481	-16.1293	84.7753	17.8521	0.0000	0.0000	0.0000	0.0000;
	142	145	0.00053	0.02875	-0.016	400	400	400	1.06299	0	1	-360	360	39.5334	-11.4234	-39.5249	13.6070	0.0000	0.0000	0.0000	0.0000;
	170	171	0.00064	0.0305	0	400	400	400	1.07408	0	1	-360	360	-398.6603	28.1219	399.6174	17.4911	0.0000	11.7626	0.0000	0.0000;
	177	180	0.00023	0.023	0	500	500	500	1.07426	0	1	-360	360	-252.6397	-62.1027	252.7855	76.6835	0.0000	0.0000	0.0000	0.0000;
	178	181	0.00023	0.023	0	500	500	500	1.07426	0	1	-360	360	-252.2631	-61.9532	252.4084	76.4891	0.0000	0.0000	0.0000	0.0000;
	185	184	0.00032	0.04392	0	330	330	330	0.9999	0	1	-360	360	-240.3638	-23.5968	240.5439	48.3032	0.0000	0.0000	0.0000	0.0000;
	188	190	0.0003	0.02732	0	500	500	500	1.10037	0	1	-360	360	-425.4400	-34.0956	426.0000	85.0947	0.0000	0.0000	0.0000	0.0000;
	195	197	0.00035	0.02375	0	500	500	500	1.08671	0	1	-360	360	-190.9293	-156.0406	191.1598	171.6827	0.0000	0.0000	0.0000	0.0000;
	208	209	0.00051	0.0275	0	400	400	400	1.07702	0	1	-360	360	-72.2906	-69.3390	72.3394	71.9658	0.0000	0.0000	0.0000	0.0000;
	213	211	0.00084	0.06858	0	250	250	250	0.9999	0	1	-360	360	-153.2486	7.4900	153.4332	7.5808	0.0000	0.0000	0.0000	0.0000;
	216	218	0.00033	0.02711	0	500	500	500	1.08613	0	1	-360	360	-137.5010	-144.2259	137.6359	155.3153	0.0000	0.0000	0.0000	0.0000;
	220	218	0.00032	0.0464	0	330	330	330	0.9999	0	1	-360	360	-182.8573	56.0096	182.9640	-40.5323	0.0000	0.0000	0.0000	0.0000;
	227	225	0.00113	0.05647	0	330	330	330	0.9999	0	1	-360	360	-106.9696	26.3356	107.0946	-20.0857	0.0000	0.0000	0.0000	0.0000;
	224	226	0.00075	0.02469	-0.008	330	330	330	1.04544	0	1	-360	360	-33.8811	-46.1684	33.9048	47.7981	0.0000	0.0000	0.0000	0.0000;
	3116	180	0.00029	0.00317	0.09184	1386	1386	1386	0	0	1	-360	360	254.5206	0.5266	-254.3501	-8.7803	0.0000	0.0000	0.0000	0.0000;
	3116	181	0.0003	0.00326	0.09536	1386	1386	1386	0	0	1	-360	360	247.4794	1.2855	-247.3126	-9.9778	0.0000	0.0000	0.0000	0.0000;
	240	82	0.01475	0.08595	0.13036	339	339	339	0	0	1	-360	360	242.0000	18.4319	-234.9052	7.3720	0.0000	0.0000	0.0000	0.0000;
	3114	90	0.01244	0.06959	0.10842	412	412	412	0	0	1	-360	360	-137.8025	47.3511	140.1642	-46.4579	0.0000	0.0000	0.0000	0.0000;
	3114	120	0.01207	0.06905	0.11519	412	412	412	0	0	1	-360	360	-268.1975	11.7586	275.7722	17.9060	0.0000	0.0000	0.0000	0.0000;
	144	3115	0.00168	0.01603	0.51488	1206	1206	1206	0	0	1	-360	360	77.1954	53.5255	-77.0000	-106.6153	0.0000	0.0000	0.0000	0.0000;
	3117	169	0.0018	0.01616	0.0484	436	436	436	0	0	1	-360	360	-316.0687	39.2176	317.5542	-31.8445	0.0000	0.0000	0.0000	0.0000;
	3117	170	0.0018	0.01616	0.0484	436	436	436	0	0	1	-360	360	-317.9313	39.2402	319.4341	-31.7121	0.0000	0.0000	0.0000	0.0000;
	3118	61	0.00223	0.02209	0.69011	831	831	831	0	0	1	-360	360	54.4265	-121.0213	-54.2108	49.4851	0.0000	0.0000	0.0000	0.0000;
	3118	62	0.00223	0.02209	0.69011	831	831	831	0	0	1	-360	360	54.5735	-121.0154	-54.3575	49.4826	0.0000	0.0000	0.0000	0.0000;
	97	3113	0.00293	0.03054	0.95472	1206	1206	1206	0	0	1	-360	360	40.0426	-52.3997	-40.0000	-52.2968	0.0000	0.0000	0.0000	0.0000;
	56	28	0.01174	0.07014	0.12689	339	339	339	0	0	1	-360	360	166.8773	39.2885	-163.9110	-36.0689	0.0000	0.0000	0.0000	0.0000;
	35	105	0.00919	0.06614	0.10451	375	375	375	0	0	1	-360	360	36.7680	16.9595	-36.6263	-28.6231	0.0000	0.0000	0.0000	0.0000;
	36	106	0.00822	0.05767	0.0982	400	400	400	0	0	1	-360	360	104.0639	13.8559	-103.3150	-20.5193	0.0000	0.0000	0.0000	0.0000;
	167	39	0.01698	0.12459	0.1957	231	231	231	0	0	1	-360	360	74.0520	16.8509	-73.1447	-32.3679	0.0000	0.0000	0.0000	0.0000;
	153	46	0.01298	0.06738	0.10284	250	250	250	0	0	1	-360	360	-31.5828	28.8368	31.8243	-39.6570	0.0000	0.0000	0.0000	0.0000;
	152	25	0.01068	0.0475	0.09495	339	339	339	0	0	1	-360	360	-136.8528	37.5571	138.6966	-40.6487	0.0000	0.0000	0.0000	0.0000;
	188	26	0.01436	0.10729	0.16081	231	231	231	0	0	1	-360	360	82.3602	16.2021	-81.4556	-27.8691	0.0000	0.0000	0.0000	0.0000;
	53	124	0.01488	0.08161	0.1148	266	266	266	0	0	1	-360	360	-81.6045	18.3841	82.5140	-27.0272	0.0000	0.0000	0.0000	0.0000;
	52	106	0.01116	0.07171	0.10367	267	267	267	0	0	1	-360	360	-110.7266	13.8643	111.9105	-18.6386	0.0000	0.0000	0.0000	0.0000;
	203	98	0.00552	0.05948	0.17077	317	317	317	0	0	1	-360	360	-177.7578	28.7516	179.3967	-29.9785	0.0000	0.0000	0.0000	0.0000;
	234	189	0.01118	0.06597	0.10778	267	267	267	0	0	1	-360	360	-223.7606	-27.1010	228.9785	45.6899	0.0000	0.0000	0.0000	0.0000;
	221	188	0.01682	0.08909	0.12993	295	295	295	0	0	1	-360	360	-182.9881	4.8098	188.0534	7.0886	0.0000	0.0000	0.0000	0.0000;
	222	189	0.01384	0.08702	0.13484	295	295	295	0	0	1	-360	360	-188.1962	-0.6468	192.5917	12.7893	0.0000	0.0000	0.0000	0.0000;
	238	192	0.01517	0.09938	0.14492	197	197	197	0	0	1	-360	360	5.5008	27.7761	-5.3248	-42.7582	0.0000	0.0000	0.0000	0.0000;
	57	14	0.01457	0.07362	0.13344	356	356	356	0	0	1	-360	360	164.9107	32.4309	-161.3788	-29.8258	0.0000	0.0000	0.0000	0.0000;
	229	23	0.01403	0.10413	0.15949	231	231	231	0	0	1	-360	360	-63.7504	-0.7642	64.2628	-13.5192	0.0000	0.0000	0.0000	0.0000;
	115	68	0.00374	0.0438	0.10096	476	476	476	0	0	1	-360	360	-35.4994	-42.0175	35.5807	30.8923	0.0000	0.0000	0.0000	0.0000;
	187	97	0.00194	0.02007	0.54307	970	970	970	0	0	1	-360	360	-538.0075	-26.7932	543.2482	21.9795	0.0000	0.0000	0.0000	0.0000;
	58	12	0.0015	0.01506	0.4032	1154	1154	1154	0	0	1	-360	360	429.0089	32.9842	-426.4440	-50.8329	0.0000	0.0000	0.0000	0.0000;
	210	171	0.00296	0.03484	0.9296	838	838	838	0	0	1	-360	360	0.3416	-21.6333	-0.3187	-78.4891	0.0000	0.0000	0.0000	0.0000;
	136	70	0.00169	0.01931	0.53814	866	866	866	0	0	1	-360	360	31.0544	4.7404	-31.0215	-62.6894	0.0000	0.0000	0.0000	0.0000;
	38	108	0.00137	0.01569	0.43744	1154	1154	1154	0	0	1	-360	360	146.7048	-34.4872	-146.4360	-10.6563	0.0000	0.0000	0.0000	0.0000;
	37	139	0.00234	0.02677	0.74653	1154	1154	1154	0	0	1	-360	360	151.6543	-51.7292	-151.1638	-24.9607	0.0000	0.0000	0.0000	0.0000;
	32	218	0.00217	0.02513	0.67098	1154	1154	1154	0	0	1	-360	360	441.8881	3.5204	-437.9344	-29.3027	0.0000	0.0000	0.0000	0.0000;
	136	78	0.00152	0.01739	0.48083	866	866	866	0	0	1	-360	360	24.4258	-40.3808	-24.4147	-12.0473	0.0000	0.0000	0.0000	0.0000;
	138	78	0.00468	0.05347	1.48883	831	831	831	0	0	1	-360	360	100.5391	-81.5067	-100.1100	-77.1825	0.0000	0.0000	0.0000	0.0000;
	97	41	0.00355	0.03617	0.95894	717	717	717	0	0	1	-360	360	156.7553	-57.8515	-155.9633	-39.5772	0.0000	0.0000	0.0000	0.0000;
	107	41	0.00097	0.01052	0.28395	970	970	970	0	0	1	-360	360	98.0942	-3.6534	-98.0082	-26.6500	0.0000	0.0000	0.0000	0.0000;
	61	137	0.00144	0.01446	0.51213	1386	1386	1386	0	0	1	-360	360	-0.3600	-47.4500	0.3651	-8.2263	0.0000	0.0000	0.0000	0.0000;
	15	6	0.013	0.09781	0.14013	375	375	375	0	0	1	-360	360	-189.4328	-5.9122	193.6937	22.0832	0.0000	0.0000	0.0000	0.0000;
	40	15	0.00525	0.03847	0.06053	231	231	231	0	0	1	-360	360	-24.7615	-7.1956	24.7918	0.8072	0.0000	0.0000	0.0000	0.0000;
	31	6	0.00457	0.03351	0.05245	317	317	317	0	0	1	-360	360	160.3719	5.2114	-159.3819	-4.1491	0.0000	0.0000	0.0000	0.0000;
	22	9	0.01469	0.10915	0.16676	317	317	317	0	0	1	-360	360	-79.4617	-22.2636	80.2992	9.0529	0.0000	0.0000	0.0000	0.0000;
	27	14	0.01262	0.09326	0.14324	231	231	231	0	0	1	-360	360	-4.0405	0.5886	4.0507	-16.3084	0.0000	0.0000	0.0000	0.0000;
	35	7	0.00924	0.05052	0.07698	295	295	295	0	0	1	-360	360	178.7649	28.3982	-176.2860	-24.1004	0.0000	0.0000	0.0000	0.0000;
	22	3	0.01068	0.07936	0.12155	231	231	231	0	0	1	-360	360	126.2501	-34.6597	-124.6795	32.3578	0.0000	0.0000	0.0000	0.0000;
	35	25	0.00585	0.04027	0.07161	400	400	400	0	0	1	-360	360	177.3587	33.3443	-175.7975	-31.2530	0.0000	0.0000	0.0000	0.0000;
	36	24	0.00585	0.04027	0.07161	400	400	400	0	0	1	-360	360	265.3756	27.2242	-261.9843	-12.5347	0.0000	0.0000	0.0000	0.0000;
	14	8	0.00558	0.04147	0.0629	231	231	231	0	0	1	-360	360	-28.7123	-116.0411	29.4002	113.9538	0.0000	0.0000	0.0000	0.0000;
	43	15	0.00089	0.0063	0.0108	231	231	231	0	0	1	-360	360	-97.4900	-55.9630	97.5930	55.5144	0.0000	0.0000	0.0000	0.0000;
	29	15	0.00442	0.02374	0.04477	339	339	339	0	0	1	-360	360	13.7848	-1.1286	-13.7771	-3.7360	0.0000	0.0000	0.0000	0.0000;
	45	7	0.00494	0.0269	0.04225	250	250	250	0	0	1	-360	360	-94.6278	-16.9774	95.0199	14.1954	0.0000	0.0000	0.0000	0.0000;
	24	6	0.00287	0.01671	0.02467	295	295	295	0	0	1	-360	360	112.3719	17.6563	-112.0572	-18.7328	0.0000	0.0000	0.0000	0.0000;
	35	1	0.0012	0.0089	0.01512	461	461	461	0	0	1	-360	360	41.3024	39.3653	-41.2700	-40.9816	0.0000	0.0000	0.0000	0.0000;
	36	2	0.0012	0.0089	0.01513	461	461	461	0	0	1	-360	360	48.2466	30.9295	-48.2140	-32.5471	0.0000	0.0000	0.0000	0.0000;
	36	30	0.00399	0.02901	0.04808	380	380	380	0	0	1	-360	360	243.9468	42.4059	-241.9529	-33.7338	0.0000	0.0000	0.0000	0.0000;
	32	12	0.00298	0.03445	0.94221	831	831	831	0	0	1	-360	360	-31.7827	-30.7390	31.8218	-70.0488	0.0000	0.0000	0.0000	0.0000;
	37	32	0.00358	0.04122	1.13382	1154	1154	1154	0	0	1	-360	360	542.8294	-27.2059	-533.2201	14.1011	0.0000	0.0000	0.0000	0.0000;
	19	38	0.00342	0.03928	1.08288	1154	1154	1154	0	0	1	-360	360	-465.3648	-15.4941	472.3287	-22.2839	0.0000	0.0000	0.0000	0.0000;
	11	21	0.00286	0.03355	0.90157	838	838	838	0	0	1	-360	360	223.1279	-39.2954	-221.7932	-40.7702	0.0000	0.0000	0.0000	0.0000;
	44	21	0.00023	0.00264	0.07296	838	838	838	0	0	1	-360	360	-0.0000	0.0000	0.0000	-7.6979	0.0000	0.0000	0.0000	0.0000;
	11	19	0.0011	0.01271	0.35206	838	838	838	0	0	1	-360	360	-205.3680	-14.2696	205.8024	-18.3972	0.0000	0.0000	0.0000	0.0000;
	184	38	0.00139	0.0159	0.44176	838	838	838	0	0	1	-360	360	-578.8580	-49.8906	583.2195	51.7941	0.0000	0.0000	0.0000	0.0000;
	77	72	0.01054	0.06151	0.09306	197	197	197	0	0	1	-360	360	5.8223	2.8693	-5.8130	-13.7422	0.0000	0.0000	0.0000	0.0000;
	74	69	0.00905	0.06723	0.10296	231	231	231	0	0	1	-360	360	-72.5643	-16.4688	72.9749	7.1767	0.0000	0.0000	0.0000	0.0000;
	81	47	0.0114	0.06587	0.09975	274	274	274	0	0	1	-360	360	70.8125	4.5388	-70.3235	-13.4895	0.0000	0.0000	0.0000	0.0000;
	64	47	0.0107	0.06628	0.10825	287	287	287	0	0	1	-360	360	38.5269	-28.3409	-38.3423	16.9748	0.0000	0.0000	0.0000	0.0000;
	72	55	0.00543	0.03733	0.06668	341	341	341	0	0	1	-360	360	-22.1814	-28.1081	22.2316	20.5926	0.0000	0.0000	0.0000	0.0000;
	73	57	0.00543	0.03733	0.06668	341	341	341	0	0	1	-360	360	-22.8361	-28.0095	22.8874	20.5018	0.0000	0.0000	0.0000	0.0000;
	73	47	0.00657	0.0481	0.0727	319	319	319	0	0	1	-360	360	-9.7397	-0.9032	9.7457	-7.5410	0.0000	0.0000	0.0000	0.0000;
	82	65	0.00302	0.0201	0.03069	339	339	339	0	0	1	-360	360	151.7666	-4.6882	-151.1624	5.1853	0.0000	0.0000	0.0000	0.0000;
	65	51	0.007	0.05138	0.08084	231	231	231	0	0	1	-360	360	70.0924	10.6136	-69.7778	-17.4592	0.0000	0.0000	0.0000	0.0000;
	49	68	0.00329	0.02506	0.0439	317	317	317	0	0	1	-360	360	-104.3682	-6.9623	104.6664	3.9272	0.0000	0.0000	0.0000	0.0000;
	50	48	0.00789	0.05868	0.08985	231	231	231	0	0	1	-360	360	45.0160	8.8212	-44.8699	-18.4476	0.0000	0.0000	0.0000	0.0000;
	69	50	0.00558	0.04062	0.06491	341	341	341	0	0	1	-360	360	64.9306	-0.4717	-64.7362	-5.9580	0.0000	0.0000	0.0000	0.0000;
	81	49	0.00452	0.03366	0.05156	341	341	341	0	0	1	-360	360	-80.3772	-5.1776	80.6218	0.8158	0.0000	0.0000	0.0000	0.0000;
	81	80	0.00134	0.00996	0.01337	287	287	287	0	0	1	-360	360	9.5647	0.6388	-9.5637	-2.2279	0.0000	0.0000	0.0000	0.0000;
	76	55	0.00618	0.04353	0.07649	341	341	341	0	0	1	-360	360	-10.8404	-13.4335	10.8507	4.4460	0.0000	0.0000	0.0000	0.0000;
	77	56	0.00618	0.04353	0.07649	266	266	266	0	0	1	-360	360	-10.4123	-13.3880	10.4221	4.3973	0.0000	0.0000	0.0000	0.0000;
	76	52	0.01219	0.0637	0.09333	266	266	266	0	0	1	-360	360	-96.2496	4.8149	97.2177	-10.8320	0.0000	0.0000	0.0000	0.0000;
	75	53	0.00246	0.01826	0.02798	231	231	231	0	0	1	-360	360	-56.9625	-19.7629	57.0367	16.9870	0.0000	0.0000	0.0000	0.0000;
	60	52	0.00242	0.01531	0.02249	287	287	287	0	0	1	-360	360	-85.6932	-26.2883	85.8564	24.6496	0.0000	0.0000	0.0000	0.0000;
	63	59	0.0017	0.01977	0.53386	838	838	838	0	0	1	-360	360	-108.4798	-38.2814	108.6653	-17.7625	0.0000	0.0000	0.0000	0.0000;
	71	67	0.00116	0.013	0.33856	838	838	838	0	0	1	-360	360	257.3116	-51.3754	-256.5866	22.9809	0.0000	0.0000	0.0000	0.0000;
	54	70	0.00218	0.02536	0.68579	838	838	838	0	0	1	-360	360	-51.7731	-65.4428	51.8457	-6.9650	0.0000	0.0000	0.0000	0.0000;
	78	71	0.00105	0.01123	0.28195	1119	1119	1119	0	0	1	-360	360	16.4783	64.7253	-16.4140	-94.6574	0.0000	0.0000	0.0000	0.0000;
	62	79	0.00119	0.01428	0.36666	1154	1154	1154	0	0	1	-360	360	30.1879	-56.5014	-30.1632	16.8248	0.0000	0.0000	0.0000	0.0000;
	66	58	0.00184	0.02139	0.5777	838	838	838	0	0	1	-360	360	84.0942	-69.2412	-83.9491	8.1121	0.0000	0.0000	0.0000	0.0000;
	111	142	0.00488	0.03362	0.05961	341	341	341	0	0	1	-360	360	-103.5828	-69.9366	104.2211	67.2627	0.0000	0.0000	0.0000	0.0000;
	89	122	0.01093	0.05919	0.08439	180	180	180	0	0	1	-360	360	27.2965	-3.2620	-27.2295	-6.6467	0.0000	0.0000	0.0000	0.0000;
	122	109	0.00194	0.01415	0.0223	341	341	341	0	0	1	-360	360	22.3241	15.7000	-22.3114	-18.3070	0.0000	0.0000	0.0000	0.0000;
	93	148	0.00192	0.01355	0.023	341	341	341	0	0	1	-360	360	-47.7665	-20.6690	47.8092	18.2179	0.0000	0.0000	0.0000	0.0000;
	148	100	0.00238	0.01667	0.02846	341	341	341	0	0	1	-360	360	-47.8092	-18.2179	47.8599	15.1459	0.0000	0.0000	0.0000	0.0000;
	149	147	0.00066	0.00496	0.00758	319	319	319	0	0	1	-360	360	109.5183	26.0255	-109.4481	-26.4012	0.0000	0.0000	0.0000	0.0000;
	121	149	0.00537	0.04039	0.06005	319	319	319	0	0	1	-360	360	90.0788	9.8963	-89.7115	-14.3598	0.0000	0.0000	0.0000	0.0000;
	106	149	0.00083	0.00525	0.00868	250	250	250	0	0	1	-360	360	19.8104	10.6517	-19.8068	-11.6657	0.0000	0.0000	0.0000	0.0000;
	115	135	0.01589	0.0832	0.11439	266	266	266	0	0	1	-360	360	-39.2557	34.1380	39.6887	-45.0494	0.0000	0.0000	0.0000	0.0000;
	95	128	0.00217	0.01459	0.02575	197	197	197	0	0	1	-360	360	33.1113	-5.1604	-33.0905	2.3054	0.0000	0.0000	0.0000	0.0000;
	132	116	0.01773	0.11678	0.16361	250	250	250	0	0	1	-360	360	61.4680	-12.2630	-60.9043	-3.4053	0.0000	0.0000	0.0000	0.0000;
	143	88	0.00593	0.04093	0.07215	341	341	341	0	0	1	-360	360	58.7234	-19.9828	-58.5432	12.4394	0.0000	0.0000	0.0000	0.0000;
	123	105	0.0039	0.02847	0.04498	317	317	317	0	0	1	-360	360	-39.7950	-21.6861	39.8592	16.8114	0.0000	0.0000	0.0000	0.0000;
	134	93	0.00816	0.04242	0.0612	314	314	314	0	0	1	-360	360	-115.4717	-58.3349	116.6573	57.4043	0.0000	0.0000	0.0000	0.0000;
	135	92	0.00816	0.04242	0.0612	314	314	314	0	0	1	-360	360	-115.8618	-58.3669	117.0540	57.4693	0.0000	0.0000	0.0000	0.0000;
	93	90	0.00519	0.03839	0.05875	400	400	400	0	0	1	-360	360	155.7983	74.8019	-154.4758	-71.8167	0.0000	0.0000	0.0000	0.0000;
	92	87	0.00213	0.01403	0.0226	250	250	250	0	0	1	-360	360	136.9710	37.0501	-136.6099	-37.3503	0.0000	0.0000	0.0000	0.0000;
	129	92	0.00463	0.02775	0.04612	267	267	267	0	0	1	-360	360	-42.1006	-50.3773	42.2617	45.9094	0.0000	0.0000	0.0000	0.0000;
	118	86	0.01122	0.07074	0.11571	180	180	180	0	0	1	-360	360	-59.3314	-54.7522	59.9339	45.4210	0.0000	0.0000	0.0000	0.0000;
	125	133	0.00601	0.04147	0.07364	308	308	308	0	0	1	-360	360	-136.3895	-90.0108	137.8117	91.3982	0.0000	0.0000	0.0000	0.0000;
	106	83	0.00207	0.01279	0.02055	197	197	197	0	0	1	-360	360	81.4270	31.3413	-81.2938	-32.9623	0.0000	0.0000	0.0000	0.0000;
	101	105	0.00136	0.0099	0.01586	400	400	400	0	0	1	-360	360	-58.5510	-12.8159	58.5917	11.2203	0.0000	0.0000	0.0000	0.0000;
	146	102	0.00058	0.00417	0.00684	341	341	341	0	0	1	-360	360	-19.7478	-16.3064	19.7509	15.5148	0.0000	0.0000	0.0000	0.0000;
	150	90	0.00085	0.00632	0.00931	457	457	457	0	0	1	-360	360	0.0000	0.7900	0.0000	-1.8334	0.0000	0.0000	0.0000	0.0000;
	151	91	0.00085	0.00612	0.00964	457	457	457	0	0	1	-360	360	0.0000	0.7900	0.0000	-1.8699	0.0000	0.0000	0.0000	0.0000;
	117	91	0.00159	0.01112	0.01913	396	396	396	0	0	1	-360	360	-14.0913	-122.5444	14.3090	121.9505	0.0000	0.0000	0.0000	0.0000;
	142	119	0.00314	0.02159	0.03839	341	341	341	0	0	1	-360	360	99.0738	-32.2367	-98.7969	29.4645	0.0000	0.0000	0.0000	0.0000;
	143	126	0.00455	0.03157	0.05531	231	231	231	0	0	1	-360	360	120.3669	63.8531	-119.6550	-65.4894	0.0000	0.0000	0.0000	0.0000;
	119	99	0.00145	0.01008	0.01719	231	231	231	0	0	1	-360	360	114.0758	49.3812	-113.8912	-50.1861	0.0000	0.0000	0.0000	0.0000;
	120	110	0.00384	0.02721	0.04517	231	231	231	0	0	1	-360	360	78.2291	13.0354	-78.0289	-17.1033	0.0000	0.0000	0.0000	0.0000;
	127	94	0.00777	0.04128	0.06391	197	197	197	0	0	1	-360	360	35.9808	-10.2065	-35.8914	3.2484	0.0000	0.0000	0.0000	0.0000;
	104	92	0.00446	0.03041	0.04867	180	180	180	0	0	1	-360	360	-12.1147	-0.9244	12.1203	-4.8463	0.0000	0.0000	0.0000	0.0000;
	133	123	0.00589	0.03506	0.05235	267	267	267	0	0	1	-360	360	72.0696	-1.3198	-71.8124	-3.3558	0.0000	0.0000	0.0000	0.0000;
	124	114	0.00316	0.02378	0.03527	231	231	231	0	0	1	-360	360	-71.6238	1.6940	71.7615	-4.8290	0.0000	0.0000	0.0000	0.0000;
	132	93	0.00184	0.0126	0.0224	231	231	231	0	0	1	-360	360	-107.7288	3.6144	107.9086	-5.0530	0.0000	0.0000	0.0000	0.0000;
	121	103	0.00171	0.00961	0.01424	250	250	250	0	0	1	-360	360	114.8918	79.6350	-114.6144	-79.7897	0.0000	0.0000	0.0000	0.0000;
	113	93	0.00341	0.02442	0.03997	317	317	317	0	0	1	-360	360	-89.1724	-7.8902	89.4023	4.7856	0.0000	0.0000	0.0000	0.0000;
	133	92	0.00184	0.0126	0.02239	231	231	231	0	0	1	-360	360	-108.4111	2.0545	108.5929	-3.4776	0.0000	0.0000	0.0000	0.0000;
	98	112	0.0057	0.04149	0.06617	341	341	341	0	0	1	-360	360	-91.1163	-60.7070	91.7162	57.6093	0.0000	0.0000	0.0000	0.0000;
	141	134	0.00461	0.02492	0.0356	266	266	266	0	0	1	-360	360	-112.7441	-64.9776	113.4549	64.8907	0.0000	0.0000	0.0000	0.0000;
	140	125	0.00215	0.01333	0.02211	250	250	250	0	0	1	-360	360	-48.5472	-53.5538	48.6485	51.7711	0.0000	0.0000	0.0000	0.0000;
	115	85	0.00079	0.00488	0.00726	137	137	137	0	0	1	-360	360	13.8914	4.1733	-13.8900	-5.0200	0.0000	0.0000	0.0000	0.0000;
	116	84	0.00079	0.00488	0.00724	137	137	137	0	0	1	-360	360	6.4103	1.1584	-6.4100	-2.0100	0.0000	0.0000	0.0000	0.0000;
	108	144	0.00241	0.02782	0.77066	1154	1154	1154	0	0	1	-360	360	-123.3988	7.6959	123.7867	-87.3631	0.0000	0.0000	0.0000	0.0000;
	97	145	0.00213	0.02432	0.67744	1240	1240	1240	0	0	1	-360	360	47.9510	1.7546	-47.8771	-74.8879	0.0000	0.0000	0.0000	0.0000;
	138	130	0.00091	0.0104	0.28989	838	838	838	0	0	1	-360	360	-187.2162	97.9921	187.6127	-125.1329	0.0000	0.0000	0.0000	0.0000;
	139	137	0.00312	0.03563	0.99107	831	831	831	0	0	1	-360	360	138.3059	-47.4960	-137.7632	-55.0018	0.0000	0.0000	0.0000	0.0000;
	130	145	0.00092	0.01051	0.29293	838	838	838	0	0	1	-360	360	-302.6252	20.2315	303.4145	-42.9133	0.0000	0.0000	0.0000	0.0000;
	198	177	0.01039	0.08983	0.11422	375	375	375	0	0	1	-360	360	-198.6623	-63.8912	202.8845	87.3421	0.0000	0.0000	0.0000	0.0000;
	199	178	0.01039	0.08983	0.11422	375	375	375	0	0	1	-360	360	-198.6598	-63.8824	202.8817	87.3308	0.0000	0.0000	0.0000	0.0000;
	201	177	0.01455	0.0813	0.13279	267	267	267	0	0	1	-360	360	-89.9804	-50.2132	91.2572	41.6611	0.0000	0.0000	0.0000	0.0000;
	202	178	0.01455	0.0813	0.13279	267	267	267	0	0	1	-360	360	-90.3236	-50.1708	91.6080	41.6615	0.0000	0.0000	0.0000	0.0000;
	156	202	0.00519	0.03965	0.05836	317	317	317	0	0	1	-360	360	-77.1592	-53.3014	77.5656	49.9523	0.0000	0.0000	0.0000	0.0000;
	156	166	0.00083	0.00645	0.00951	317	317	317	0	0	1	-360	360	64.6670	52.1422	-64.6137	-52.7521	0.0000	0.0000	0.0000	0.0000;
	189	161	0.01105	0.08107	0.12824	341	341	341	0	0	1	-360	360	159.9461	41.1563	-157.3313	-36.4918	0.0000	0.0000	0.0000	0.0000;
	157	177	0.00597	0.04473	0.06735	317	317	317	0	0	1	-360	360	-123.6233	-53.9872	124.5313	52.7034	0.0000	0.0000	0.0000	0.0000;
	196	198	0.01736	0.10969	0.16268	287	287	287	0	0	1	-360	360	-42.5606	15.7243	42.9454	-30.7295	0.0000	0.0000	0.0000	0.0000;
	173	199	0.00938	0.06093	0.08934	339	339	339	0	0	1	-360	360	-103.7477	-15.3176	104.7512	12.5866	0.0000	0.0000	0.0000	0.0000;
	176	178	0.01246	0.09134	0.14349	400	400	400	0	0	1	-360	360	-278.3822	-21.2611	287.3717	70.5959	0.0000	0.0000	0.0000	0.0000;
	154	158	0.00514	0.03826	0.05933	231	231	231	0	0	1	-360	360	-64.6455	-44.0235	64.9107	39.1741	0.0000	0.0000	0.0000	0.0000;
	169	164	0.01062	0.0789	0.12085	317	317	317	0	0	1	-360	360	-63.0835	67.4341	63.9098	-75.5805	0.0000	0.0000	0.0000	0.0000;
	175	205	0.00769	0.0569	0.08673	231	231	231	0	0	1	-360	360	-69.0374	46.2079	69.5628	-51.4612	0.0000	0.0000	0.0000	0.0000;
	175	204	0.00225	0.01667	0.02541	286	286	286	0	0	1	-360	360	0.0015	-9.8976	0.0000	7.1700	0.0000	0.0000	0.0000	0.0000;
	196	168	0.01851	0.1088	0.14435	250	250	250	0	0	1	-360	360	-120.1833	-19.8380	122.6604	18.0363	0.0000	0.0000	0.0000	0.0000;
	200	195	0.00236	0.01411	0.02031	229	229	229	0	0	1	-360	360	-100.2931	-47.9830	100.5630	47.4006	0.0000	0.0000	0.0000	0.0000;
	195	161	0.00355	0.02607	0.04096	341	341	341	0	0	1	-360	360	-13.9367	13.6851	13.9513	-18.0287	0.0000	0.0000	0.0000	0.0000;
	196	191	0.013	0.07589	0.11484	267	267	267	0	0	1	-360	360	142.2590	-14.8799	-139.8366	16.5769	0.0000	0.0000	0.0000	0.0000;
	195	174	0.00934	0.0539	0.08683	287	287	287	0	0	1	-360	360	35.6948	58.2910	-35.2453	-64.8461	0.0000	0.0000	0.0000	0.0000;
	168	152	0.00698	0.0374	0.05463	314	314	314	0	0	1	-360	360	-163.4690	10.0462	165.0643	-7.9719	0.0000	0.0000	0.0000	0.0000;
	167	153	0.00436	0.03202	0.0503	400	400	400	0	0	1	-360	360	-192.4618	2.9112	193.8355	1.2168	0.0000	0.0000	0.0000	0.0000;
	188	168	0.0006	0.00351	0.00555	341	341	341	0	0	1	-360	360	35.6079	60.1170	-35.5829	-60.6253	0.0000	0.0000	0.0000	0.0000;
	189	167	0.0006	0.00351	0.00555	341	341	341	0	0	1	-360	360	20.5273	62.9381	-20.5048	-63.4611	0.0000	0.0000	0.0000	0.0000;
	176	164	0.01058	0.07762	0.12203	231	231	231	0	0	1	-360	360	141.0066	-53.4343	-138.8370	55.8741	0.0000	0.0000	0.0000	0.0000;
	182	169	0.00469	0.03486	0.05338	317	317	317	0	0	1	-360	360	-81.5789	-55.6982	81.9510	52.0079	0.0000	0.0000	0.0000	0.0000;
...